LTspice 24.1.0 for Windows
Circuit: C:\Users\Nathan\Documents\PocketConcepts\Solar_ATTINY\HW\SIMS\astableMultivibrator.net
Start Time: Sun Feb 16 14:53:23 2025
solver = Normal
Maximum thread count: 12
tnom = 27
temp = 27
method = trap
Direct Newton iteration for .op point succeeded.
Total elapsed time: 0.058 seconds.

Files loaded:
C:\Users\Nathan\Documents\PocketConcepts\Solar_ATTINY\HW\SIMS\astableMultivibrator.net
C:\Users\Nathan\AppData\Local\LTspice\lib\cmp\standard.dio
C:\Users\Nathan\AppData\Local\LTspice\lib\cmp\standard.bjt

